[Format]      =  4.0
[Frequency]   =  0
[Precision]   =  1e-008
[MinAngle]    =  30
[Depth]       =  1
[LengthUnits] =  inches
[ProblemType] =  axisymmetric
[Coordinates] =  cartesian
[ACSolver]    =  0
[Comment]     =  "Add comments here."
[PointProps]   = 0
[BdryProps]   = 1
  <BeginBdry>
    <BdryName> = "ABC"
    <BdryType> = 2
    <A_0> = 0
    <A_1> = 0
    <A_2> = 0
    <Phi> = 0
    <c0> = 7832428.3017665027
    <c0i> = 0
    <c1> = 0
    <c1i> = 0
    <Mu_ssd> = 0
    <Sigma_ssd> = 0
  <EndBdry>
[BlockProps]  = 3
  <BeginBlock>
    <BlockName> = "Air"
    <Mu_x> = 1
    <Mu_y> = 1
    <H_c> = 0
    <H_cAngle> = 0
    <J_re> = 0
    <J_im> = 0
    <Sigma> = 0
    <d_lam> = 0
    <Phi_h> = 0
    <Phi_hx> = 0
    <Phi_hy> = 0
    <LamType> = 0
    <LamFill> = 1
    <NStrands> = 0
    <WireD> = 0
    <BHPoints> = 0
  <EndBlock>
  <BeginBlock>
    <BlockName> = "wire"
    <Mu_x> = 1
    <Mu_y> = 1
    <H_c> = 0
    <H_cAngle> = 0
    <J_re> = 0
    <J_im> = 0
    <Sigma> = 58
    <d_lam> = 0
    <Phi_h> = 0
    <Phi_hx> = 0
    <Phi_hy> = 0
    <LamType> = 3
    <LamFill> = 1
    <NStrands> = 1
    <WireD> = 0.51055922706257251
    <BHPoints> = 0
  <EndBlock>
  <BeginBlock>
    <BlockName> = "NdFeB 40 MGOe"
    <Mu_x> = 1.0489999999999999
    <Mu_y> = 1.0489999999999999
    <H_c> = 979000
    <H_cAngle> = 0
    <J_re> = 0
    <J_im> = 0
    <Sigma> = 0.66700000000000004
    <d_lam> = 0
    <Phi_h> = 0
    <Phi_hx> = 0
    <Phi_hy> = 0
    <LamType> = 0
    <LamFill> = 1
    <NStrands> = 0
    <WireD> = 0
    <BHPoints> = 0
  <EndBlock>
[CircuitProps]  = 3
  <BeginCircuit>
    <CircuitName> = "CoilA"
    <TotalAmps_re> = 8.1799999999999997
    <TotalAmps_im> = 0
    <CircuitType> = 1
  <EndCircuit>
  <BeginCircuit>
    <CircuitName> = "CoilB"
    <TotalAmps_re> = 4.089999999999999
    <TotalAmps_im> = 0
    <CircuitType> = 1
  <EndCircuit>
  <BeginCircuit>
    <CircuitName> = "CoilC"
    <TotalAmps_re> = -4.0900000000000007
    <TotalAmps_im> = -0
    <CircuitType> = 1
  <EndCircuit>
[NumPoints] = 42
0	5.6400000000000006	0	0
0	-5.6400000000000006	0	0
0.25	-2.9039999999999999	0	0
0.25	-5.016	0	0
0	-2.9039999999999999	0	0
0	-5.016	0	0
0.25	-0.26400000000000001	0	0
0.25	-2.3760000000000003	0	0
0	-0.26400000000000001	0	0
0	-2.3760000000000003	0	0
0.25	2.3760000000000003	0	0
0.25	0.26400000000000001	0	0
0	2.3760000000000003	0	0
0	0.26400000000000001	0	0
0.25	5.016	0	0
0.25	2.9039999999999999	0	0
0	5.016	0	0
0	2.9039999999999999	0	0
0.38500000000000001	-1.7850000000000001	0	0
0.625	-1.7850000000000001	0	0
0.38500000000000001	-2.6150000000000002	0	0
0.625	-2.6150000000000002	0	0
0.38500000000000001	-0.90500000000000003	0	0
0.625	-0.90500000000000003	0	0
0.38500000000000001	-1.7350000000000001	0	0
0.625	-1.7350000000000001	0	0
0.38500000000000001	-0.025000000000000022	0	0
0.625	-0.025000000000000022	0	0
0.38500000000000001	-0.85500000000000009	0	0
0.625	-0.85500000000000009	0	0
0.38500000000000001	0.85500000000000009	0	0
0.625	0.85500000000000009	0	0
0.38500000000000001	0.025000000000000022	0	0
0.625	0.025000000000000022	0	0
0.38500000000000001	1.7350000000000001	0	0
0.625	1.7350000000000001	0	0
0.38500000000000001	0.90500000000000003	0	0
0.625	0.90500000000000003	0	0
0.38500000000000001	2.6150000000000002	0	0
0.625	2.6150000000000002	0	0
0.38500000000000001	1.7850000000000001	0	0
0.625	1.7850000000000001	0	0
[NumSegments] = 45
1	5	-1	0	0	0
4	9	-1	0	0	0
5	4	-1	0	0	0
4	2	-1	0	0	0
3	2	-1	0	0	0
5	3	-1	0	0	0
8	13	-1	0	0	0
9	8	-1	0	0	0
8	6	-1	0	0	0
7	6	-1	0	0	0
9	7	-1	0	0	0
12	17	-1	0	0	0
13	12	-1	0	0	0
12	10	-1	0	0	0
11	10	-1	0	0	0
13	11	-1	0	0	0
16	0	-1	0	0	0
17	16	-1	0	0	0
16	14	-1	0	0	0
15	14	-1	0	0	0
17	15	-1	0	0	0
18	19	-1	0	0	0
20	21	-1	0	0	0
19	21	-1	0	0	0
18	20	-1	0	0	0
22	23	-1	0	0	0
24	25	-1	0	0	0
23	25	-1	0	0	0
22	24	-1	0	0	0
26	27	-1	0	0	0
28	29	-1	0	0	0
27	29	-1	0	0	0
26	28	-1	0	0	0
30	31	-1	0	0	0
32	33	-1	0	0	0
31	33	-1	0	0	0
30	32	-1	0	0	0
34	35	-1	0	0	0
36	37	-1	0	0	0
35	37	-1	0	0	0
34	36	-1	0	0	0
38	39	-1	0	0	0
40	41	-1	0	0	0
39	41	-1	0	0	0
38	40	-1	0	0	0
[NumArcSegments] = 1
1	0	180	2	1	0	0
[NumHoles] = 0
[NumBlockLabels] = 11
2.6400000000000001	0	1	0.050000000000000003	0	0	0	1	0
0.125	-3.96	3	0.050000000000000003	0	90	7	1	0
0.125	-1.3200000000000001	3	0.050000000000000003	0	-90	7	1	0
0.125	1.3200000000000001	3	0.050000000000000003	0	90	7	1	0
0.125	3.96	3	0.050000000000000003	0	-90	7	1	0
0.505	-2.2000000000000002	2	0.050000000000000003	1	0	1	527	0
0.505	-1.3200000000000001	2	0.050000000000000003	2	0	2	527	0
0.505	-0.44000000000000006	2	0.050000000000000003	3	0	3	527	0
0.505	0.44000000000000006	2	0.050000000000000003	1	0	4	-527	0
0.505	1.3200000000000001	2	0.050000000000000003	2	0	5	-527	0
0.505	2.2000000000000002	2	0.050000000000000003	3	0	6	-527	0
